LAMMPS (27 Jun 2024)
Loaded 1 plugins from C:\Users\nashi\AppData\Local\LAMMPS 64-bit 27Jun2024-MSMPI\plugins
units real
atom_style full

read_data ../RelaxSilica/silica-relaxed.data
Reading data file ...
  orthogonal box = (-0.59718422 0.12173731 1.8916359) to (31.475551 30.756629 28.986731)
  reading atoms ...
  1944 atoms
  reading velocities ...
  1944 velocities
Finding 1-2 1-3 1-4 neighbors ...
     0 = max # of 1-2 neighbors
     0 = max # of 1-3 neighbors
     0 = max # of 1-4 neighbors
     1 = max # of special neighbors

mass 1 28.0855 # Si
mass 2 15.999 # O

pair_style reaxff NULL safezone 3.0 mincap 150
pair_coeff * * ../RelaxSilica/reaxCHOFe.ff Si O
fix myqeq all qeq/reaxff 1 0.0 10.0 1.0e-6 reaxff maxiter 400

group grpSi type 1
648 atoms in group grpSi
group grpO type 2
1296 atoms in group grpO
variable qSi equal charge(grpSi)/count(grpSi)
variable qO equal charge(grpO)/count(grpO)

thermo 50
thermo_style custom step temp etotal press vol v_qSi v_qO
dump dmp all custom 100 dump.lammpstrj id type q x y z

fix myspec all reaxff/species 5 1 5 species.log element Si O

fix mynvt all nvt temp 300.0 300.0 100
timestep 0.5

run 5000

CITE-CITE-CITE-CITE-CITE-CITE-CITE-CITE-CITE-CITE-CITE-CITE-CITE

Your simulation uses code contributions which should be cited:

- Type Label Framework: https://doi.org/10.1021/acs.jpcb.3c08419

@Article{Gissinger24,
 author = {Jacob R. Gissinger, Ilia Nikiforov, Yaser Afshar, Brendon Waters, Moon-ki Choi, Daniel S. Karls, Alexander Stukowski, Wonpil Im, Hendrik Heinz, Axel Kohlmeyer, and Ellad B. Tadmor},
 title = {Type Label Framework for Bonded Force Fields in LAMMPS},
 journal = {J. Phys. Chem. B},
 year =    2024,
 volume =  128,
 number =  13,
 pages =   {3282â€“-3297}
}

- pair reaxff command: doi:10.1016/j.parco.2011.08.005

@Article{Aktulga12,
 author = {H. M. Aktulga and J. C. Fogarty and S. A. Pandit and A. Y. Grama},
 title = {Parallel Reactive Molecular Dynamics: {N}umerical Methods and Algorithmic Techniques},
 journal = {Parallel Computing},
 year =    2012,
 volume =  38,
 number =  {4--5},
 pages =   {245--259}
}

- fix qeq/reaxff command: doi:10.1016/j.parco.2011.08.005

@Article{Aktulga12,
 author = {H. M. Aktulga and J. C. Fogarty and S. A. Pandit and A. Y. Grama},
 title = {Parallel Reactive Molecular Dynamics: {N}umerical Methods and Algorithmic Techniques},
 journal = {Parallel Computing},
 year =    2012,
 volume =  38,
 pages =   {245--259}
}

CITE-CITE-CITE-CITE-CITE-CITE-CITE-CITE-CITE-CITE-CITE-CITE-CITE

Step          Temp          TotEng         Press          Volume         v_qSi           v_qO
0   300.06036     -288685.25     -2921.5866      26622.144      1.8542376     -0.9271188
Averages over the last 51 of 101 rows, steps 2500 to 5000:
Temp TotEng Press Volume v_qSi v_qO
301.943 -288755 -645.654 26622.1 1.85775 -0.928876
Loop time of 1165.3 on 2 procs for 5000 steps with 1944 atoms

fix mydef all deform 1 x erate 5e-5

run 25000
Step          Temp          TotEng         Press          Volume         v_qSi           v_qO
5000   304.6938      -288751.51     -1121.4436      26622.144      1.8591092     -0.92955459
Averages over the last 251 of 501 rows, steps 17500 to 30000:
Temp TotEng Press Volume v_qSi v_qO
345.412 -277093 -56066.3 39101.3 1.62539 -0.812697
Loop time of 4330.37 on 2 procs for 25000 steps with 1944 atoms

write_data silica-deformed.data
System init for write_data ...
