LAMMPS (27 Jun 2024)
Loaded 1 plugins from C:\Users\nashi\AppData\Local\LAMMPS 64-bit 27Jun2024-MSMPI\plugins
# Solvating the PEG in water
units real
atom_style full
bond_style harmonic
angle_style harmonic
dihedral_style harmonic
pair_style lj/cut/coul/long 10
kspace_style pppm 1e-5
special_bonds lj 0.0 0.0 0.5 coul 0.0 0.0 1.0 angle yes dihedral yes

read_data ../pureH2O/H2O.data     extra/bond/per/atom 3     extra/angle/per/atom 6     extra/dihedral/per/atom 10     extra/special/per/atom 14
Reading data file ...
  orthogonal box = (-33.294352 -11.098117 -11.098117) to (33.294352 11.098117 11.098117)
  reading atoms ...
  3150 atoms
  reading velocities ...
  3150 velocities
  scanning bonds ...
  scanning angles ...
  orthogonal box = (-33.294352 -11.098117 -11.098117) to (33.294352 11.098117 11.098117)
  reading bonds ...
  2100 bonds
  reading angles ...
  1050 angles
Finding 1-2 1-3 1-4 neighbors ...
     2 = max # of 1-2 neighbors
     1 = max # of 1-3 neighbors
     1 = max # of 1-4 neighbors
    16 = max # of special neighbors
include ../PARM.lammps
# LAMMPS input script by Simon Gravelle
# This input is part of a tutorial from https://lammpstutorials.github.io
# Last tested using the 2Aug2023 stable LAMMPS version
# This file was released under the GNU general public license v3.0

# ⣿⣿⡆⠀⠀⠀⠀⠀⠀⣾⣿⣿⣆⠀⠀⠀⣿⣿⣿⣆⠀⠀⣰⣿⣿⣷⠀⢸⣿⣿⣷⡀⠀⢀⣾⣿⣿⠀⠀⣿⣿⣿⣿⣿⣷⣆⠀⢀⣶⣿⠿⠿⣿⡆⠀⠀⠀⠀⠀⠀⠀⠀⠀⢀⣀⣠⣤⣶⣿⣿⣿⣦⡄⠀⠀⠀⠀⠀⠀⠀
# ⣿⣿⡇⠀⠀⠀⠀⠀⣼⣿⡏⣿⣿⡄⠀⠀⣿⣿⡿⣿⡆⢰⣿⢿⣿⣿⠀⢸⣿⣿⢿⣧⠀⣾⡿⣿⣿⠀⠀⣿⣿⡇⠀⢈⣿⣿⠀⢸⣿⣧⣄⣀⡀⠀⠀⠀⠀⠀⠀⠀⢀⣤⣾⣿⣿⠏⣿⣿⣿⣿⣿⣿⣿⡄⠀⠀⠀⠀⠀⠀
# ⣿⣿⡇⠀⠀⠀⠀⢰⣿⣿⣀⣸⣿⣷⡀⠀⣿⣿⡇⢻⣿⣿⡏⢸⣿⣿⠀⢸⣿⣿⠘⣿⣿⡿⠁⣿⣿⠀⠀⣿⣿⡿⠿⠿⠿⠋⠀⠀⠉⠛⠻⠿⣿⣷⠀⠀⠀⠀⠀⢠⣿⣿⣿⣿⣿⡄⠻⣿⣿⣿⣿⡿⠟⣃⠀⠀⠀⠀⠀⠀
# ⣿⣿⣧⣤⣤⣤⢠⣿⣿⠛⠛⠛⢻⣿⣧⠀⣿⣿⡇⠀⠛⠛⠀⢸⣿⣿⠀⢸⣿⣿⠀⠘⠛⠃⠀⣿⣿⠀⠀⣿⣿⡇⠀⠀⠀⠀⠀⢰⣶⣤⣤⣤⣿⡿⠀⠀⠀⠀⠀⣻⣿⣿⣿⣿⣿⣿⣄⡀⠉⠉⠁⠀⢠⣿⡄⠀⠀⠀⠀⠀
# ⠉⠉⠉⠉⠉⠉⠈⠉⠁⠀⠀⠀⠀⠉⠉⠀⠉⠉⠁⠀⠀⠀⠀⠈⠉⠉⠀⠈⠉⠉⠀⠀⠀⠀⠀⠉⠉⠀⠀⠉⠉⠁⠀⠀⠀⠀⠀⠀⠉⠉⠉⠉⠉⠀⠀⠀⠀⠀⠀⣿⣿⣿⣿⣿⣿⣿⣿⣿⣷⣶⣶⣾⣿⣿⡇⠀⠀⠀⠀⠀
# ⢀⣤⠀⠀⠀⠀⠀⠀⠀⠀⠀⠀⣤⡀⠀⠀⠀⠀⠀⠀⠀⠀⠀⠀⠀⠀⠀⢰⣶⠀⠀⠀⠀⠀⠀⠀⠀⢰⡆⠀⠀⠀⠀⠀⠀⠀⠀⠀⠀⠀⠀⠀⠀⠀⠀⠀⠀⠀⠀⠘⣿⣿⣿⣿⣿⣿⣿⣿⣿⣿⣿⣿⣿⣿⡃⠀⠀⠀⠀⠀
# ⣼⣿⣴⡦⠀⣴⠀⠀⠀⣴⡄⢤⣿⣧⣶⠄⢀⣤⡶⣶⣄⠀⠀⣴⣤⣴⣦⢠⣦⠀⠀⣤⠶⢶⣤⡀⠀⢸⡇⠀⢠⣴⠶⢦⡄⠀⠀⠀⠀⠀⠀⠀⠀⠀⠀⠀⠀⠀⠀⢀⣼⣿⣿⣿⣿⣿⣿⣿⣿⣿⣿⣿⣿⣿⣿⣶⣄⠀⠀⠀
# ⢸⣿⠀⠀⠀⣿⠀⠀⠀⣿⡇⠀⣿⡆⠀⠀⣿⠇⠀⠀⢻⡇⠀⣿⡇⠀⠀⢸⣿⠀⠀⣠⣤⣤⣽⡇⠀⢸⡇⠀⢻⣧⣄⣀⠀⠀⠀⠀⠀⠀⠀⠀⠀⠀⠀⠀⣀⣀⣀⣾⣿⣿⣿⣿⣿⣿⣿⣿⣿⣿⣿⣿⣿⣿⣿⣿⣿⣧⡀⠀
# ⠸⣿⠀⠀⠀⣿⡄⠀⢀⣿⡇⠀⣿⡇⠀⠀⢿⣇⠀⢀⣼⡇⠀⣿⡇⠀⠀⢸⣿⠀⢸⣏⠀⠀⣼⡇⠀⢸⡇⠀⡀⠀⠉⢹⣷⠀⠀⠀⠀⠀⠀⠀⣀⣴⣾⣿⣿⡟⢸⣿⣿⣿⣿⣿⣿⣿⣿⣿⣿⣿⣿⣿⣿⣿⣿⣿⣿⣿⣷⠀
# ⠀⠙⠛⠛⠀⠈⠛⠛⠋⠛⠁⠀⠈⠛⠛⠃⠈⠛⠛⠛⠋⠀⠀⠛⠃⠀⠀⠘⠛⠀⠈⠛⠛⠛⠙⠃⠀⠘⠃⠀⠙⠛⠛⠛⠁⠀⠀⠀⠀⠀⢠⣾⣿⣿⣿⣿⣿⠀⣼⣿⣿⣿⣿⣿⣿⣿⣿⣿⣿⣿⣿⣿⣿⣿⣿⣿⣿⣿⣿⡇
# ⠀⠀⠀⠀⠀⠀⠀⠀⠀⠀⠀⠀⠀⠀⠀⠀⠀⠀⠀⠀⠀⠀⠀⠀⠀⠀⠀⠀⠀⠀⠀⠀⠀⠀⠀⠀⠀⠀⠀⠀⠀⠀⠀⠀⠀⠀⠀⠀⣠⣴⣿⣿⣿⣿⣿⣿⣿⡀⣿⣿⣿⣿⣿⣿⣿⣿⣿⣿⣿⣿⣿⣿⣿⣿⣿⣿⣿⣿⣿⣿
#⠀ ⠀⠀⠀⠀⠀⠀⠀⠀⠀⠀⠀⠀⠀⠀⠀⠀⠀⠀⠀⠀⠀⠀⠀⠀⠀⠀⠀⠀⠀⠀⠀⠀⠀⠀⠀⠀⠀⠀⠀⠀⠀⠀⠀⠀⠀⠀⢰⣿⣿⣿⣿⣿⣿⣿⣿⣿⡇⢻⣿⣿⣿⣿⣿⣿⣿⣿⣿⣿⣿⣿⣿⣿⣿⣿⣿⣿⣿⣿⡏
# ⠀⠀⠀⠀⠀⠀⠀⠀⠀⠀⠀⠀⠀⠀⠀⠀⠀⠀⠀⠀⠀⠀⠀⠀⠀⠀⠀⠀⠀⠀⠀⠀⠀⠀⠀⠀⠀⠀⠀⠀⠀⠀⠀⠀⠀⠀⠀⠸⣿⣿⣿⣿⣿⣿⣿⣿⣿⣿⡘⣿⣿⣿⣿⣿⡏⣼⣿⣿⣿⣿⣿⣿⣿⣿⣿⣿⣿⣿⣿⠁
# ⠀⠀⠀⠀⠀⠀⠀⠀⠀⠀⠀⠀⠀⠀⠀⠀⠀⠀⠀⠀⠀⠀⠀⠀⠀⠀⠀⠀⠀⠀⠀⠀⠀⠀⠀⠀⠀⠀⠀⠀⠀⠀⠀⠀⠀⠀⠀⠀⠨⣿⣿⣿⣿⣿⣿⣿⣿⣿⣷⡈⠻⣿⣿⣿⣇⠸⣿⣿⣿⣿⣿⣿⡿⢻⣿⣿⠿⠋⠁⠀
# ⠀⠀⠀⠀⠀⠀⠀⠀⠀⠀⠀⠀⠀⠀⠀⠀⠀⠀⠀⠀⠀⠀⠀⠀⠀⠀⠀⠀⠀⠀⠀⠀⠀⠀⠀⠀⠀⠀⠀⠀⠀⠀⠀⠀⠀⠀⠀⠀⠀⢻⣿⣿⣿⣿⣿⣿⣿⣿⣿⣷⡀⠈⠻⢿⣿⣦⣈⠙⠛⠛⠛⣁⣴⡿⠛⠁⠀⠀⠀⠀
# ⠀⠀⠀⠀⠀⠀⠀⠀⠀⠀⠀⠀⠀⠀⠀⠀⠀⠀⠀⠀⠀⠀⠀⠀⠀⠀⠀⠀⠀⠀⠀⠀⠀⠀⠀⠀⠀⠀⠀⠀⠀⠀⠀⠀⠀⠀⠀⠀⠀⠀⠻⣿⣿⣿⣿⣿⣿⣿⣿⣿⣿⣦⡀⠀⠈⠉⠛⠛⠓⠚⠋⠉⠁⠀⠀⠀⠀⠀⠀⠀
# ⠀⠀⠀⠀⠀⠀⠀⠀⠀⠀⠀⠀⠀⠀⠀⠀⠀⠀⠀⠀⠀⠀⠀⠀⠀⠀⠀⠀⠀⠀⠀⠀⠀⠀⠀⠀⠀⠀⠀⠀⠀⠀⠀⠀⠀⠀⠀⠀⠀⠀⠀⠀⠙⠻⠿⣿⣿⣿⣿⡿⠟⠋⠀

mass 1 15.9994 # PEG O (GROMOS 54A7)
mass 2 12.011 # PEG C (GROMOS 54A7)
mass 3 1.008 # PEG H (GROMOS 54A7)
mass 4 1.008 # PEG H (GROMOS 54A7)
mass 5 12.011 # PEG C (GROMOS 54A7)
mass 6 15.9994 # PEG O (GROMOS 54A7)
mass 7 15.9994 # PEG O (GROMOS 54A7)
mass 8 15.9994 # H2O O (SPC/Fw)
mass 9 1.008 # H2O H (SPC/Fw)

pair_coeff 1 1 0.2526 2.8492 # PEG O (GROMOS 54A7)
pair_coeff 2 2 0.0663 3.5812 # PEG C (GROMOS 54A7)
pair_coeff 3 3 0.0283 2.3734 # PEG H (GROMOS 54A7)
pair_coeff 4 4 0.0 0.0 # PEG H (GROMOS 54A7)
pair_coeff 5 5 0.2450 2.8114 # PEG C (GROMOS 54A7)
pair_coeff 6 6 0.1195 3.1000 # PEG O (GROMOS 54A7)
pair_coeff 7 7 0.1195 3.1000 # PEG O (GROMOS 54A7)
pair_coeff 8 8 0.155 3.165  # H2O O (SPC/Fw)
pair_coeff 9 9 0.0 0.0 # H2O H (SPC/Fw)

bond_coeff 1 1109.2926 1.12
bond_coeff 2 399.7916 1.43
bond_coeff 3 299.8440 1.52
bond_coeff 4 400.0343 1.53
bond_coeff 5 310.7075 1.41
bond_coeff 6 179.2543 0.971
bond_coeff 7 529.581 1.012 # H2O O-H (SPC/Fw)

angle_coeff 1 47.6940 109.5
angle_coeff 2 55.1271 109.5
angle_coeff 3 47.6350 109.6
angle_coeff 4 55.1139 111.0
angle_coeff 5 54.9931 110.3
angle_coeff 6 180.4602 109.0
angle_coeff 7 30.1731 110.0
angle_coeff 8 37.95 113.24 # H2O H-O-H (SPC/Fw)

dihedral_coeff 1 0.3011 1 3
dihedral_coeff 2 1.4149 1 3
dihedral_coeff 3 0.2390 -1 3
dihedral_coeff 4 0.0 1 1

molecule pegmol PEG-GROMOS.mol
Read molecule template pegmol:
# LAMMPS molecule file for peg
  1 molecules
  0 fragments
  101 atoms with max type 7
  100 bonds with max type 6
  183 angles with max type 7
  210 dihedrals with max type 4
  0 impropers with max type 0
create_atoms 0 single 0 0 0 mol pegmol 454756
Created 101 atoms

group H2O type 8 9
3150 atoms in group H2O
group PEG type 1 2 3 4 5 6 7
101 atoms in group PEG

delete_atoms overlap 2.0 H2O PEG mol yes
System init for delete_atoms ...
PPPM initialization ...
  G vector (1/distance) = 0.30026174
  grid = 45 20 20
  stencil order = 5
  estimated absolute RMS force accuracy = 0.0037060882
  estimated relative force accuracy = 1.1160774e-05
  3d grid and FFT values/proc = 13122 4800
Generated 36 of 36 mixed pair_coeff terms from geometric mixing rule
Deleted 192 atoms, new total = 3059
Deleted 128 bonds, new total = 2072
Deleted 64 angles, new total = 1169
Deleted 0 dihedrals, new total = 210

fix mynpt all npt temp 300 300 100 x 1 1 1000
timestep 1.0

dump mydmp all atom 100 dump.lammpstrj
thermo 100
variable mytemp equal temp
variable myvol equal vol
fix myat1 all ave/time 10 10 100 v_mytemp file temperature.dat
fix myat2 all ave/time 10 10 100 v_myvol file volume.dat

variable myenthalpy equal enthalpy
fix myat3 all ave/time 10 10 100 v_myenthalpy file enthalpy.dat

run 30000

CITE-CITE-CITE-CITE-CITE-CITE-CITE-CITE-CITE-CITE-CITE-CITE-CITE

Your simulation uses code contributions which should be cited:

- Type Label Framework: https://doi.org/10.1021/acs.jpcb.3c08419

@Article{Gissinger24,
 author = {Jacob R. Gissinger, Ilia Nikiforov, Yaser Afshar, Brendon Waters, Moon-ki Choi, Daniel S. Karls, Alexander Stukowski, Wonpil Im, Hendrik Heinz, Axel Kohlmeyer, and Ellad B. Tadmor},
 title = {Type Label Framework for Bonded Force Fields in LAMMPS},
 journal = {J. Phys. Chem. B},
 year =    2024,
 volume =  128,
 number =  13,
 pages =   {3282–-3297}
}

CITE-CITE-CITE-CITE-CITE-CITE-CITE-CITE-CITE-CITE-CITE-CITE-CITE

PPPM initialization ...
  G vector (1/distance) = 0.30026074
  grid = 45 20 20
  stencil order = 5
  estimated absolute RMS force accuracy = 0.0035882052
  estimated relative force accuracy = 1.0805773e-05
  3d grid and FFT values/proc = 13122 4800
Generated 36 of 36 mixed pair_coeff terms from geometric mixing rule
Step          Temp          E_pair         E_mol          TotEng         Press          Volume
0   286.36487     -10324.084      1165.0433     -6548.7337     -225.79598      32806.445
Averages over the last 151 of 301 rows, steps 15000 to 30000:
Temp E_pair E_mol TotEng Press Volume
300.06 -10675.5 1320.28 -6620.04 -36.3825 31871.9
Loop time of 241.938 on 4 procs for 30000 steps with 3059 atoms

write_data mix.data
System init for write_data ...
PPPM initialization ...
  G vector (1/distance) = 0.30078591
  grid = 45 20 20
  stencil order = 5
  estimated absolute RMS force accuracy = 0.0035078548
  estimated relative force accuracy = 1.05638e-05
  3d grid and FFT values/proc = 13122 4800
Generated 36 of 36 mixed pair_coeff terms from geometric mixing rule
