LAMMPS (27 Jun 2024)
Loaded 1 plugins from C:\Users\nashi\AppData\Local\LAMMPS 64-bit 27Jun2024-MSMPI\plugins
boundary p p f
units real
atom_style full
bond_style harmonic
angle_style harmonic
pair_style lj/cut/tip4p/long 1 2 1 1 0.1546 12.0
kspace_style pppm/tip4p 1.0e-4
kspace_modify slab 3.0

read_data ../equilibration/system.data
Reading data file ...
  orthogonal box = (-12.12 -12.12 -20.2) to (12.12 12.12 20.2)
  reading atoms ...
  1665 atoms
  reading velocities ...
  1665 velocities
  scanning bonds ...
  scanning angles ...
  orthogonal box = (-12.12 -12.12 -20.2) to (12.12 12.12 20.2)
  reading bonds ...
  802 bonds
  reading angles ...
  401 angles
Finding 1-2 1-3 1-4 neighbors ...
     2 = max # of 1-2 neighbors
     1 = max # of 1-3 neighbors
     1 = max # of 1-4 neighbors
     2 = max # of special neighbors

include ../PARM.lammps
mass 1 15.9994 # water
mass 2 1.008 # water
mass 3 28.990 # ion
mass 4 35.453 # ion
mass 5 26.9815 # wall

pair_coeff 1 1 0.185199 3.1589 # water
pair_coeff 2 2 0.0 1.0 # water
pair_coeff 3 3 0.04690 2.4299 # ion
pair_coeff 4 4 0.1500 4.04470 # ion
pair_coeff 5 5 11.697 2.574 # wall
pair_coeff 1 5 0.4 2.86645 # water-wall

bond_coeff 1 0 0.9572 # water

angle_coeff 1 0 104.52 # water
include ../GROUP.lammps
group H2O type 1 2
1203 atoms in group H2O
group Na type 3
15 atoms in group Na
group Cl type 4
15 atoms in group Cl
group ions union Na Cl
30 atoms in group ions
group fluid union H2O ions
1233 atoms in group fluid

group wall type 5
432 atoms in group wall
region rtop block INF INF INF INF 0 INF
region rbot block INF INF INF INF INF 0
group top region rtop
842 atoms in group top
group bot region rbot
823 atoms in group bot
group walltop intersect wall top
216 atoms in group walltop
group wallbot intersect wall bot
216 atoms in group wallbot

fix mynve all nve
compute Tfluid fluid temp/partial 0 1 1
fix myber1 fluid temp/berendsen 300 300 100
fix_modify myber1 temp Tfluid
compute Twall wall temp/partial 0 1 1
fix myber2 wall temp/berendsen 300 300 100
fix_modify myber2 temp Twall
fix myshk H2O shake 1.0e-4 200 0 b 1 a 1
Finding SHAKE clusters ...
       0 = # of size 2 clusters
       0 = # of size 3 clusters
       0 = # of size 4 clusters
     401 = # of frozen angles
  find clusters CPU = 0.000 seconds
fix myrct all recenter NULL NULL 0

fix mysf1 walltop setforce 0 NULL NULL
fix mysf2 wallbot setforce 0 NULL NULL
velocity wallbot set -2e-4 NULL NULL
velocity walltop set 2e-4 NULL NULL

dump mydmp all atom 500 dump.lammpstrj
thermo 50
thermo_modify temp Tfluid

compute cc1 H2O chunk/atom bin/1d z 0.0 1.0
compute cc2 wall chunk/atom bin/1d z 0.0 1.0
compute cc3 ions chunk/atom bin/1d z 0.0 1.0

fix myac1 H2O ave/chunk 10 15000 200000 cc1 density/mass vx file water.profile_1A.dat
fix myac2 wall ave/chunk 10 15000 200000 cc2 density/mass vx file wall.profile_1A.dat
fix myac3 ions ave/chunk 10 15000 200000 cc3 density/mass vx file ions.profile_1A.dat

fix myat1 all ave/time 10 100 1000 f_mysf1[1] f_mysf2[1] file forces.dat

timestep 1.0
run 200000

CITE-CITE-CITE-CITE-CITE-CITE-CITE-CITE-CITE-CITE-CITE-CITE-CITE

Your simulation uses code contributions which should be cited:

- Type Label Framework: https://doi.org/10.1021/acs.jpcb.3c08419

@Article{Gissinger24,
 author = {Jacob R. Gissinger, Ilia Nikiforov, Yaser Afshar, Brendon Waters, Moon-ki Choi, Daniel S. Karls, Alexander Stukowski, Wonpil Im, Hendrik Heinz, Axel Kohlmeyer, and Ellad B. Tadmor},
 title = {Type Label Framework for Bonded Force Fields in LAMMPS},
 journal = {J. Phys. Chem. B},
 year =    2024,
 volume =  128,
 number =  13,
 pages =   {3282â€“-3297}
}

CITE-CITE-CITE-CITE-CITE-CITE-CITE-CITE-CITE-CITE-CITE-CITE-CITE

PPPM initialization ...
  extracting TIP4P info from pair style
  G vector (1/distance) = 0.22477066
  grid = 12 12 40
  stencil order = 5
  estimated absolute RMS force accuracy = 0.023142321
  estimated relative force accuracy = 6.9692414e-05
  3d grid and FFT values/proc = 8892 2376
Generated 9 of 10 mixed pair_coeff terms from geometric mixing rule
Step          Temp          E_pair         E_mol          TotEng         Press
0   318.63838     -38091.581      0             -37565.391     -15562.092
Averages over the last 2001 of 4001 rows, steps 100000 to 200000:
Temp E_pair E_mol TotEng Press
299.902 -38209.1 0 -37713.8 -16089.9
Loop time of 784.224 on 4 procs for 200000 steps with 1665 atoms

write_data system.data nocoeff
System init for write_data ...
PPPM initialization ...
  extracting TIP4P info from pair style
  G vector (1/distance) = 0.22477066
  grid = 12 12 40
  stencil order = 5
  estimated absolute RMS force accuracy = 0.023142321
  estimated relative force accuracy = 6.9692414e-05
  3d grid and FFT values/proc = 8892 2376
Generated 9 of 10 mixed pair_coeff terms from geometric mixing rule
