LAMMPS (2 Aug 2023 - Update 3)
Loaded 1 plugins from C:\Users\nashi\AppData\Local\LAMMPS 64-bit 2Aug2023\plugins
## Input file initialization

# Initialisation
variable T equal 300

units metal
atom_style atomic
boundary p p p
pair_style airebo 2.5 1 1

## Use of AIREBO potential

# System definition
read_data cnt_atom.data
Reading data file ...
  orthogonal box = (-40 -40 -12.130411) to (40 40 67.869589)
  reading atoms ...
  700 atoms
pair_coeff * * CH.airebo C
Reading airebo potential file CH.airebo with DATE: 2011-10-25

change_box all x final -40 40 y final -40 40 z final -60 60
Changing box ...
  orthogonal box = (-40 -40 -12.130411) to (40 40 67.869589)
  orthogonal box = (-40 -40 -12.130411) to (40 40 67.869589)
  orthogonal box = (-40 -40 -60) to (40 40 60)

group carbon_atoms type 1
700 atoms in group carbon_atoms
variable carbon_xcm equal -1*xcm(carbon_atoms,x)
variable carbon_ycm equal -1*xcm(carbon_atoms,y)
variable carbon_zcm equal -1*xcm(carbon_atoms,z)
displace_atoms carbon_atoms move 8.45130634422529e-18 1.0914862143567e-15 -27.869588464286
Displacing atoms ...

variable zmax equal bound(carbon_atoms,zmax)-0.5
variable zmin equal bound(carbon_atoms,zmin)+0.5
region rtop block INF INF INF INF 27.369589535714 INF
region rbot block INF INF INF INF INF -27.369588464286
region rmid block INF INF INF INF -27.369588464286 27.369589535714

group carbon_top region rtop
10 atoms in group carbon_top
group carbon_bot region rbot
10 atoms in group carbon_bot
group carbon_mid region rmid
680 atoms in group carbon_mid

variable zmax_del equal 27.369589535714-2
variable zmin_del equal -27.369588464286+2
region rdel block INF INF INF INF -25.369588464286 25.369589535714
group rdel region rdel
630 atoms in group rdel
delete_atoms random fraction 0.02 no rdel NULL 482793
Deleted 10 atoms, new total = 690

reset_atoms id sort yes
velocity carbon_mid create 300 48455 mom yes rot yes
fix mynve all nve
compute Tmid carbon_mid temp
fix myber carbon_mid temp/berendsen 300 300 0.1
fix_modify myber temp Tmid

## Start the simulation
fix mysf1 carbon_bot setforce 0 0 0
fix mysf2 carbon_top setforce 0 0 0
velocity carbon_bot set 0 0 0
velocity carbon_top set 0 0 0

variable L equal xcm(carbon_top,z)-xcm(carbon_bot,z)
fix at1 all ave/time 10 10 100 v_L file output_cnt_length.dat
fix at2 all ave/time 10 10 100 f_mysf1[1] f_mysf2[1]     file output_edge_force.dat

dump mydmp all atom 1000 dump.lammpstrj

thermo 100
thermo_modify temp Tmid

timestep 0.0005
run 5000
Step          Temp          E_pair         E_mol          TotEng         Press
0   300           -4934.7812      0             -4908.8387     -650.52378
Averages over the last 26 of 51 rows, steps 2500 to 5000:
Temp E_pair E_mol TotEng Press
299.026 -4924.03 0 -4898.17 -279.392
Loop time of 14.8166 on 1 procs for 5000 steps with 690 atoms

## Launch the deformation
# 0.15 A/ps = 15 m/s
velocity carbon_top set 0 0 0.15
run 280000
Step          Temp          E_pair         E_mol          TotEng         Press
5000   290.1644      -4923.3156      0             -4898.2236     -266.98728
Averages over the last 1401 of 2801 rows, steps 145000 to 285000:
Temp E_pair E_mol TotEng Press
312.686 -4513.91 0 -4486.87 -2000.61
Loop time of 1002 on 1 procs for 280000 steps with 690 atoms
