LAMMPS (2 Aug 2023 - Update 3)
Loaded 1 plugins from C:\Users\nashi\AppData\Local\LAMMPS 64-bit 2Aug2023\plugins
# Input file for uniaxial compressive loading of single crystal aluminum
# Mark Tschopp, November 2010

# ------------------------ INITIALIZATION ----------------------------
units 		metal
dimension	3
boundary	p	p	p
atom_style	atomic
variable latparam equal 4.05

# ----------------------- ATOM DEFINITION ----------------------------
lattice		fcc 4.05
Lattice spacing in x,y,z = 4.05 4.05 4.05
region		whole block 0 30 0 30 0 30
create_box	1 whole
Created orthogonal box = (0 0 0) to (121.5 121.5 121.5)

region		upper block INF INF INF INF INF INF units box
lattice 	fcc 4.05 orient x 1 0 0 orient y 0 1 0 orient z 0 0 1
Lattice spacing in x,y,z = 4.05 4.05 4.05
create_atoms	1 region upper
Created 108000 atoms

# ------------------------ FORCE FIELDS ------------------------------
pair_style	eam/alloy
pair_coeff	* * Al99.eam.alloy Al

# ------------------------- SETTINGS ---------------------------------
compute csym all centro/atom fcc
compute peratom all pe/atom

######################################
# EQUILIBRATION
reset_timestep	0
timestep 0.001
velocity all create 300 12345 mom yes rot no
fix 1 all npt temp 300 300 1 iso 0 0 1 drag 1

# Set thermo output
thermo 1000
thermo_style custom step lx ly lz press pxx pyy pzz pe temp

# Run for at least 10 picosecond (assuming 1 fs timestep)
run 20000
Step           Lx             Ly             Lz           Press           Pxx            Pyy            Pzz           PotEng          Temp
0   121.5          121.5          121.5          2496.7237      2489.6937      2499.9318      2500.5457     -362880         300
Averages over the last 11 of 21 rows, steps 10000 to 20000:
Lx Ly Lz Press Pxx Pyy Pzz PotEng Temp
121.846 121.846 121.846 4.63019 10.5124 5.75623 -2.37809 -359534 241.308
Loop time of 1952.92 on 1 procs for 20000 steps with 108000 atoms

unfix 1

# Store final cell length for strain calculations
variable tmp equal "lx"
variable L0 equal 121.890292831979
Initial Length, L0: 121.890292831979

######################################
# DEFORMATION
reset_timestep	0

fix		1 all npt temp 300 300 1 y 0 0 1 z 0 0 1 drag 1
variable srate equal 1.0e10
variable srate1 equal "-v_srate / 1.0e12"
fix		2 all deform 1 x erate -0.01 units box remap x

# Output strain and stress info to file
# for units metal, pressure is in [bars] = 100 [kPa] = 1/10000 [GPa]
# p2, p3, p4 are in GPa
variable strain equal "(lx - v_L0)/v_L0"
variable p1 equal "v_strain"
variable p2 equal "-pxx/10000"
variable p3 equal "-pyy/10000"
variable p4 equal "-pzz/10000"

# Dump to cfg for Ovito post processing
dump     1 all custom 250 dump.comp.* id type xs ys zs c_csym c_peratom fx fy fz

# Display thermo
thermo 	1000
thermo_style	custom step v_strain temp v_p2 v_p3 v_p4 ke pe press

run		20000
Step        v_strain         Temp           v_p2           v_p3           v_p4          KinEng         PotEng         Press
0  -1.1658726e-15  265.99478     -0.0024339442   0.00039103965 -0.0037116806   3713.2781     -359172.52      19.181951
Averages over the last 11 of 21 rows, steps 10000 to 20000:
v_strain Temp v_p2 v_p3 v_p4 KinEng PotEng Press
-0.15 334.988 -2.14089 -0.0102949 -0.007252 4676.43 -355060 7194.78
Loop time of 3444.82 on 1 procs for 20000 steps with 108000 atoms

######################################
# SIMULATION DONE
print "All done"
All done
