LAMMPS (27 Jun 2024)
Loaded 1 plugins from C:\Users\nashi\AppData\Local\LAMMPS 64-bit 27Jun2024-MSMPI\plugins
units metal
boundary p p p
atom_style full
pair_style vashishta
neighbor 1.0 bin
neigh_modify delay 1

read_data SiO.data
Reading data file ...
  orthogonal box = (0 0 0) to (5.1463944 5.1463944 5.1463944)
  reading atoms ...
  9 atoms
Finding 1-2 1-3 1-4 neighbors ...
     0 = max # of 1-2 neighbors
     0 = max # of 1-3 neighbors
     0 = max # of 1-4 neighbors
     1 = max # of special neighbors
replicate 6 6 6
Replication is creating a 6x6x6 = 216 times larger system...
  orthogonal box = (0 0 0) to (30.878367 30.878367 30.878367)
  1944 atoms
Finding 1-2 1-3 1-4 neighbors ...
     0 = max # of 1-2 neighbors
     0 = max # of 1-3 neighbors
     0 = max # of 1-4 neighbors
     1 = max # of special neighbors
  replicate CPU = 0.002 seconds

pair_coeff * * ../Potential/SiO.1990.vashishta Si O
Reading vashishta potential file ../Potential/SiO.1990.vashishta with DATE: 2015-10-14

dump dmp all atom 5000 dump.lammpstrj
variable myvol equal vol
variable mylx equal lx
variable myly equal ly
variable mylz equal lz
variable mypot equal pe
variable mytemp equal temp
fix myat1 all ave/time 10 100 1000 v_mytemp file temperature.dat
fix myat2 all ave/time 10 100 1000 v_myvol v_mylx v_myly v_mylz file dimensions.dat
fix myat3 all ave/time 10 100 1000 v_mypot file potential-energy.dat
thermo 1000

velocity all create 6000 4928459 rot yes dist gaussian
fix npt1 all npt temp 6000 6000 0.1 iso 100 100 1
timestep 0.001
run 50000

CITE-CITE-CITE-CITE-CITE-CITE-CITE-CITE-CITE-CITE-CITE-CITE-CITE

Your simulation uses code contributions which should be cited:

- Type Label Framework: https://doi.org/10.1021/acs.jpcb.3c08419

@Article{Gissinger24,
 author = {Jacob R. Gissinger, Ilia Nikiforov, Yaser Afshar, Brendon Waters, Moon-ki Choi, Daniel S. Karls, Alexander Stukowski, Wonpil Im, Hendrik Heinz, Axel Kohlmeyer, and Ellad B. Tadmor},
 title = {Type Label Framework for Bonded Force Fields in LAMMPS},
 journal = {J. Phys. Chem. B},
 year =    2024,
 volume =  128,
 number =  13,
 pages =   {3282â€“-3297}
}

CITE-CITE-CITE-CITE-CITE-CITE-CITE-CITE-CITE-CITE-CITE-CITE-CITE

Step          Temp          E_pair         E_mol          TotEng         Press          Volume
0   6000          -6955.2003      0             -5448.2856      779112.36      29441.705
Averages over the last 26 of 51 rows, steps 25000 to 50000:
Temp E_pair E_mol TotEng Press Volume
6024.83 -14540.8 0 -13027.7 350.241 44626.7
Loop time of 493.053 on 3 procs for 50000 steps with 1944 atoms

fix npt1 all npt temp 6000 4000 0.1 aniso 100 100 1
run 50000
Step          Temp          E_pair         E_mol          TotEng         Press          Volume
50000   6050.0253     -14458.912      0             -12939.433      1890.8623      45605.672
Averages over the last 26 of 51 rows, steps 75000 to 100000:
Temp E_pair E_mol TotEng Press Volume
4509.07 -15574.2 0 -14441.8 345.773 31679.6
Loop time of 525.922 on 3 procs for 50000 steps with 1944 atoms

fix npt1 all npt temp 4000 300 0.1 aniso 100 1 1
run 200000
Step          Temp          E_pair         E_mol          TotEng         Press          Volume
100000   3881.7917     -15943.865      0             -14968.943      6515.6487      29454.974
Averages over the last 101 of 201 rows, steps 200000 to 300000:
Temp E_pair E_mol TotEng Press Volume
1227.3 -17214.4 0 -16906.1 -94.8943 25827.7
Loop time of 2608.24 on 3 procs for 200000 steps with 1944 atoms

fix npt1 all npt temp 300 300 0.1 aniso 1 1 1
run 50000
Step          Temp          E_pair         E_mol          TotEng         Press          Volume
300000   314.61129     -17472.361      0             -17393.345      691.37492      25227.532
Averages over the last 26 of 51 rows, steps 325000 to 350000:
Temp E_pair E_mol TotEng Press Volume
301.01 -17472.6 0 -17397 -291.154 25240.4
Loop time of 1098.2 on 3 procs for 50000 steps with 1944 atoms

write_data amorphousSiO.data
System init for write_data ...
