LAMMPS (27 Jun 2024)
Loaded 1 plugins from C:\Users\nashi\AppData\Local\LAMMPS 64-bit 27Jun2024-MSMPI\plugins
# Stretching the PEG molecul

## Initialization and Setup
variable f0 equal 5    # Defines a variable f0 with a value of 5, which will be used later to apply a force of 5 units (likely in kcal/mol·Å) during the stretching phase.

units real    # Sets the units to "real," commonly used for molecular simulations, where length is in Angstroms, energy is in kcal/mol, and time is in femtoseconds.
atom_style full    # Specifies that each atom has a full set of molecular data, including bonds, angles, dihedrals, and charges.
bond_style harmonic    # Uses a harmonic potential for bonds, which penalizes deviations from an equilibrium bond length.
angle_style harmonic    # Uses a harmonic potential for angles, penalizing deviations from an equilibrium bond angle.
dihedral_style harmonic    #  Uses a harmonic potential for dihedrals, which controls the rotation around bonds.
pair_style lj/cut/coul/long 10    # Specifies that Lennard-Jones (LJ) interactions are truncated at 10 Å, while Coulombic interactions are treated with a long-range solver.
kspace_style pppm 1e-5    # Uses the particle-particle particle-mesh (PPPM) method to calculate long-range Coulombic interactions with an accuracy of 1e-5.
special_bonds lj 0.0 0.0 0.5 coul 0.0 0.0 1.0 angle yes dihedral yes    # Modifies the nonbonded interactions between atoms in the same molecule based on their connectivity. Here, it scales LJ and Coulomb interactions for 1-4 pairs (atoms separated by three bonds).

## System Definition
read_data ../2_mergePEGH2O/mix.data    # Reads in the atomic coordinates, bond connectivity, atom types, and simulation box dimensions from the file mix.data.
Reading data file ...
  orthogonal box = (-32.703149 -11.098117 -11.098117) to (32.703149 11.098117 11.098117)
  reading atoms ...
  3059 atoms
  reading velocities ...
  3059 velocities
  scanning bonds ...
  scanning angles ...
  scanning dihedrals ...
  orthogonal box = (-32.703149 -11.098117 -11.098117) to (32.703149 11.098117 11.098117)
  reading bonds ...
  2072 bonds
  reading angles ...
  1169 angles
  reading dihedrals ...
  210 dihedrals
Finding 1-2 1-3 1-4 neighbors ...
     4 = max # of 1-2 neighbors
     6 = max # of 1-3 neighbors
    12 = max # of 1-4 neighbors
    14 = max # of special neighbors
include ../PARM.lammps    # Includes additional parameters and settings from an external file PARM.lammps.
# LAMMPS input script by Simon Gravelle
# This input is part of a tutorial from https://lammpstutorials.github.io
# Last tested using the 2Aug2023 stable LAMMPS version
# This file was released under the GNU general public license v3.0

# ⣿⣿⡆⠀⠀⠀⠀⠀⠀⣾⣿⣿⣆⠀⠀⠀⣿⣿⣿⣆⠀⠀⣰⣿⣿⣷⠀⢸⣿⣿⣷⡀⠀⢀⣾⣿⣿⠀⠀⣿⣿⣿⣿⣿⣷⣆⠀⢀⣶⣿⠿⠿⣿⡆⠀⠀⠀⠀⠀⠀⠀⠀⠀⢀⣀⣠⣤⣶⣿⣿⣿⣦⡄⠀⠀⠀⠀⠀⠀⠀
# ⣿⣿⡇⠀⠀⠀⠀⠀⣼⣿⡏⣿⣿⡄⠀⠀⣿⣿⡿⣿⡆⢰⣿⢿⣿⣿⠀⢸⣿⣿⢿⣧⠀⣾⡿⣿⣿⠀⠀⣿⣿⡇⠀⢈⣿⣿⠀⢸⣿⣧⣄⣀⡀⠀⠀⠀⠀⠀⠀⠀⢀⣤⣾⣿⣿⠏⣿⣿⣿⣿⣿⣿⣿⡄⠀⠀⠀⠀⠀⠀
# ⣿⣿⡇⠀⠀⠀⠀⢰⣿⣿⣀⣸⣿⣷⡀⠀⣿⣿⡇⢻⣿⣿⡏⢸⣿⣿⠀⢸⣿⣿⠘⣿⣿⡿⠁⣿⣿⠀⠀⣿⣿⡿⠿⠿⠿⠋⠀⠀⠉⠛⠻⠿⣿⣷⠀⠀⠀⠀⠀⢠⣿⣿⣿⣿⣿⡄⠻⣿⣿⣿⣿⡿⠟⣃⠀⠀⠀⠀⠀⠀
# ⣿⣿⣧⣤⣤⣤⢠⣿⣿⠛⠛⠛⢻⣿⣧⠀⣿⣿⡇⠀⠛⠛⠀⢸⣿⣿⠀⢸⣿⣿⠀⠘⠛⠃⠀⣿⣿⠀⠀⣿⣿⡇⠀⠀⠀⠀⠀⢰⣶⣤⣤⣤⣿⡿⠀⠀⠀⠀⠀⣻⣿⣿⣿⣿⣿⣿⣄⡀⠉⠉⠁⠀⢠⣿⡄⠀⠀⠀⠀⠀
# ⠉⠉⠉⠉⠉⠉⠈⠉⠁⠀⠀⠀⠀⠉⠉⠀⠉⠉⠁⠀⠀⠀⠀⠈⠉⠉⠀⠈⠉⠉⠀⠀⠀⠀⠀⠉⠉⠀⠀⠉⠉⠁⠀⠀⠀⠀⠀⠀⠉⠉⠉⠉⠉⠀⠀⠀⠀⠀⠀⣿⣿⣿⣿⣿⣿⣿⣿⣿⣷⣶⣶⣾⣿⣿⡇⠀⠀⠀⠀⠀
# ⢀⣤⠀⠀⠀⠀⠀⠀⠀⠀⠀⠀⣤⡀⠀⠀⠀⠀⠀⠀⠀⠀⠀⠀⠀⠀⠀⢰⣶⠀⠀⠀⠀⠀⠀⠀⠀⢰⡆⠀⠀⠀⠀⠀⠀⠀⠀⠀⠀⠀⠀⠀⠀⠀⠀⠀⠀⠀⠀⠘⣿⣿⣿⣿⣿⣿⣿⣿⣿⣿⣿⣿⣿⣿⡃⠀⠀⠀⠀⠀
# ⣼⣿⣴⡦⠀⣴⠀⠀⠀⣴⡄⢤⣿⣧⣶⠄⢀⣤⡶⣶⣄⠀⠀⣴⣤⣴⣦⢠⣦⠀⠀⣤⠶⢶⣤⡀⠀⢸⡇⠀⢠⣴⠶⢦⡄⠀⠀⠀⠀⠀⠀⠀⠀⠀⠀⠀⠀⠀⠀⢀⣼⣿⣿⣿⣿⣿⣿⣿⣿⣿⣿⣿⣿⣿⣿⣶⣄⠀⠀⠀
# ⢸⣿⠀⠀⠀⣿⠀⠀⠀⣿⡇⠀⣿⡆⠀⠀⣿⠇⠀⠀⢻⡇⠀⣿⡇⠀⠀⢸⣿⠀⠀⣠⣤⣤⣽⡇⠀⢸⡇⠀⢻⣧⣄⣀⠀⠀⠀⠀⠀⠀⠀⠀⠀⠀⠀⠀⣀⣀⣀⣾⣿⣿⣿⣿⣿⣿⣿⣿⣿⣿⣿⣿⣿⣿⣿⣿⣿⣧⡀⠀
# ⠸⣿⠀⠀⠀⣿⡄⠀⢀⣿⡇⠀⣿⡇⠀⠀⢿⣇⠀⢀⣼⡇⠀⣿⡇⠀⠀⢸⣿⠀⢸⣏⠀⠀⣼⡇⠀⢸⡇⠀⡀⠀⠉⢹⣷⠀⠀⠀⠀⠀⠀⠀⣀⣴⣾⣿⣿⡟⢸⣿⣿⣿⣿⣿⣿⣿⣿⣿⣿⣿⣿⣿⣿⣿⣿⣿⣿⣿⣷⠀
# ⠀⠙⠛⠛⠀⠈⠛⠛⠋⠛⠁⠀⠈⠛⠛⠃⠈⠛⠛⠛⠋⠀⠀⠛⠃⠀⠀⠘⠛⠀⠈⠛⠛⠛⠙⠃⠀⠘⠃⠀⠙⠛⠛⠛⠁⠀⠀⠀⠀⠀⢠⣾⣿⣿⣿⣿⣿⠀⣼⣿⣿⣿⣿⣿⣿⣿⣿⣿⣿⣿⣿⣿⣿⣿⣿⣿⣿⣿⣿⡇
# ⠀⠀⠀⠀⠀⠀⠀⠀⠀⠀⠀⠀⠀⠀⠀⠀⠀⠀⠀⠀⠀⠀⠀⠀⠀⠀⠀⠀⠀⠀⠀⠀⠀⠀⠀⠀⠀⠀⠀⠀⠀⠀⠀⠀⠀⠀⠀⠀⣠⣴⣿⣿⣿⣿⣿⣿⣿⡀⣿⣿⣿⣿⣿⣿⣿⣿⣿⣿⣿⣿⣿⣿⣿⣿⣿⣿⣿⣿⣿⣿
#⠀ ⠀⠀⠀⠀⠀⠀⠀⠀⠀⠀⠀⠀⠀⠀⠀⠀⠀⠀⠀⠀⠀⠀⠀⠀⠀⠀⠀⠀⠀⠀⠀⠀⠀⠀⠀⠀⠀⠀⠀⠀⠀⠀⠀⠀⠀⠀⢰⣿⣿⣿⣿⣿⣿⣿⣿⣿⡇⢻⣿⣿⣿⣿⣿⣿⣿⣿⣿⣿⣿⣿⣿⣿⣿⣿⣿⣿⣿⣿⡏
# ⠀⠀⠀⠀⠀⠀⠀⠀⠀⠀⠀⠀⠀⠀⠀⠀⠀⠀⠀⠀⠀⠀⠀⠀⠀⠀⠀⠀⠀⠀⠀⠀⠀⠀⠀⠀⠀⠀⠀⠀⠀⠀⠀⠀⠀⠀⠀⠸⣿⣿⣿⣿⣿⣿⣿⣿⣿⣿⡘⣿⣿⣿⣿⣿⡏⣼⣿⣿⣿⣿⣿⣿⣿⣿⣿⣿⣿⣿⣿⠁
# ⠀⠀⠀⠀⠀⠀⠀⠀⠀⠀⠀⠀⠀⠀⠀⠀⠀⠀⠀⠀⠀⠀⠀⠀⠀⠀⠀⠀⠀⠀⠀⠀⠀⠀⠀⠀⠀⠀⠀⠀⠀⠀⠀⠀⠀⠀⠀⠀⠨⣿⣿⣿⣿⣿⣿⣿⣿⣿⣷⡈⠻⣿⣿⣿⣇⠸⣿⣿⣿⣿⣿⣿⡿⢻⣿⣿⠿⠋⠁⠀
# ⠀⠀⠀⠀⠀⠀⠀⠀⠀⠀⠀⠀⠀⠀⠀⠀⠀⠀⠀⠀⠀⠀⠀⠀⠀⠀⠀⠀⠀⠀⠀⠀⠀⠀⠀⠀⠀⠀⠀⠀⠀⠀⠀⠀⠀⠀⠀⠀⠀⢻⣿⣿⣿⣿⣿⣿⣿⣿⣿⣷⡀⠈⠻⢿⣿⣦⣈⠙⠛⠛⠛⣁⣴⡿⠛⠁⠀⠀⠀⠀
# ⠀⠀⠀⠀⠀⠀⠀⠀⠀⠀⠀⠀⠀⠀⠀⠀⠀⠀⠀⠀⠀⠀⠀⠀⠀⠀⠀⠀⠀⠀⠀⠀⠀⠀⠀⠀⠀⠀⠀⠀⠀⠀⠀⠀⠀⠀⠀⠀⠀⠀⠻⣿⣿⣿⣿⣿⣿⣿⣿⣿⣿⣦⡀⠀⠈⠉⠛⠛⠓⠚⠋⠉⠁⠀⠀⠀⠀⠀⠀⠀
# ⠀⠀⠀⠀⠀⠀⠀⠀⠀⠀⠀⠀⠀⠀⠀⠀⠀⠀⠀⠀⠀⠀⠀⠀⠀⠀⠀⠀⠀⠀⠀⠀⠀⠀⠀⠀⠀⠀⠀⠀⠀⠀⠀⠀⠀⠀⠀⠀⠀⠀⠀⠀⠙⠻⠿⣿⣿⣿⣿⡿⠟⠋⠀

mass 1 15.9994 # PEG O (GROMOS 54A7)
mass 2 12.011 # PEG C (GROMOS 54A7)
mass 3 1.008 # PEG H (GROMOS 54A7)
mass 4 1.008 # PEG H (GROMOS 54A7)
mass 5 12.011 # PEG C (GROMOS 54A7)
mass 6 15.9994 # PEG O (GROMOS 54A7)
mass 7 15.9994 # PEG O (GROMOS 54A7)
mass 8 15.9994 # H2O O (SPC/Fw)
mass 9 1.008 # H2O H (SPC/Fw)

pair_coeff 1 1 0.2526 2.8492 # PEG O (GROMOS 54A7)
pair_coeff 2 2 0.0663 3.5812 # PEG C (GROMOS 54A7)
pair_coeff 3 3 0.0283 2.3734 # PEG H (GROMOS 54A7)
pair_coeff 4 4 0.0 0.0 # PEG H (GROMOS 54A7)
pair_coeff 5 5 0.2450 2.8114 # PEG C (GROMOS 54A7)
pair_coeff 6 6 0.1195 3.1000 # PEG O (GROMOS 54A7)
pair_coeff 7 7 0.1195 3.1000 # PEG O (GROMOS 54A7)
pair_coeff 8 8 0.155 3.165  # H2O O (SPC/Fw)
pair_coeff 9 9 0.0 0.0 # H2O H (SPC/Fw)

bond_coeff 1 1109.2926 1.12
bond_coeff 2 399.7916 1.43
bond_coeff 3 299.8440 1.52
bond_coeff 4 400.0343 1.53
bond_coeff 5 310.7075 1.41
bond_coeff 6 179.2543 0.971
bond_coeff 7 529.581 1.012 # H2O O-H (SPC/Fw)

angle_coeff 1 47.6940 109.5
angle_coeff 2 55.1271 109.5
angle_coeff 3 47.6350 109.6
angle_coeff 4 55.1139 111.0
angle_coeff 5 54.9931 110.3
angle_coeff 6 180.4602 109.0
angle_coeff 7 30.1731 110.0
angle_coeff 8 37.95 113.24 # H2O H-O-H (SPC/Fw)

dihedral_coeff 1 0.3011 1 3
dihedral_coeff 2 1.4149 1 3
dihedral_coeff 3 0.2390 -1 3
dihedral_coeff 4 0.0 1 1

## Grouping Atoms
group H2O type 8 9    # Creates a group called H2O that includes atoms of types 8 and 9, likely representing water molecules.
2958 atoms in group H2O
group PEG type 1 2 3 4 5 6 7    # Creates a group called PEG that includes atoms of types 1 to 7, representing the PEG molecule.
101 atoms in group PEG
group topull1 type 6    # Creates a group called topull1 that includes atoms of type 6, possibly representing one end of the PEG molecule.
1 atoms in group topull1
group topull2 type 7    # Creates a group called topull2 that includes atoms of type 7, possibly representing the other end of the PEG molecule.
1 atoms in group topull2

## Output and Simulation Settings
dump mydmp all atom 100 dump.lammpstrj    # Dumps atom coordinates to the file dump.lammpstrj every 1000 timesteps for visualization.

timestep 1.0    # Sets the timestep to 1.0 femtoseconds.
fix mynvt all nvt temp 300 300 100    # Applies the NVT ensemble (constant Number, Volume, and Temperature) using a Nose-Hoover thermostat to maintain the temperature at 300 K.

## Computing and Averaging Quantities
variable mytemp equal temp    # Defines a variable mytemp to store the system's temperature.
fix myat1 all ave/time 10 10 100 v_mytemp file output-temperature.dat    # Averages the temperature over time and writes it to output-temperature.dat.

variable x1 equal xcm(topull1,x)    # Calculates the x-coordinate of the center of mass (xcm) of the topull1 group and stores it in x1.
variable x2 equal xcm(topull2,x)
variable y1 equal xcm(topull1,y)
variable y2 equal xcm(topull2,y)
variable z1 equal xcm(topull1,z)
variable z2 equal xcm(topull2,z)
variable delta_r equal sqrt((v_x1-v_x2)^2+(v_y1-v_y2)^2+(v_z1-v_z2)^2)    # Computes the distance between the centers of mass of topull1 and topull2 and stores it in delta_r.

fix myat2 all ave/time 10 10 100 v_delta_r     file output-end-to-end-distance.dat    # Averages the end-to-end distance over time and writes it to output-end-to-end-distance.dat.
compute rgyr PEG gyration    # Computes the radius of gyration of the PEG molecule.
fix myat3 all ave/time 10 10 100 c_rgyr file gyration-radius.dat    # Averages the radius of gyration over time and writes it to gyration-radius.dat.

thermo 100    # Outputs thermodynamic information every 1000 timesteps.

## Equilibration Run
run 30000    # Runs the simulation for 30,000 timesteps (30 ps) to equilibrate the system.

CITE-CITE-CITE-CITE-CITE-CITE-CITE-CITE-CITE-CITE-CITE-CITE-CITE

Your simulation uses code contributions which should be cited:

- Type Label Framework: https://doi.org/10.1021/acs.jpcb.3c08419

@Article{Gissinger24,
 author = {Jacob R. Gissinger, Ilia Nikiforov, Yaser Afshar, Brendon Waters, Moon-ki Choi, Daniel S. Karls, Alexander Stukowski, Wonpil Im, Hendrik Heinz, Axel Kohlmeyer, and Ellad B. Tadmor},
 title = {Type Label Framework for Bonded Force Fields in LAMMPS},
 journal = {J. Phys. Chem. B},
 year =    2024,
 volume =  128,
 number =  13,
 pages =   {3282–-3297}
}

CITE-CITE-CITE-CITE-CITE-CITE-CITE-CITE-CITE-CITE-CITE-CITE-CITE

PPPM initialization ...
  G vector (1/distance) = 0.30078591
  grid = 45 20 20
  stencil order = 5
  estimated absolute RMS force accuracy = 0.0035078548
  estimated relative force accuracy = 1.05638e-05
  3d grid and FFT values/proc = 13122 4800
Generated 36 of 36 mixed pair_coeff terms from geometric mixing rule
Step          Temp          E_pair         E_mol          TotEng         Press
0   301.25438     -10897.439      1408.5941     -6742.8157     -683.47541
Averages over the last 151 of 301 rows, steps 15000 to 30000:
Temp E_pair E_mol TotEng Press
300.517 -10852.9 1438.79 -6674.77 -391.611
Loop time of 105.349 on 4 procs for 30000 steps with 3059 atoms

## Applying Stretching Force
fix myaf1 topull1 addforce 5 0 0
fix myaf2 topull2 addforce -5 0 0

run 30000    # Runs the simulation for another 30,000 timesteps (30 ps) while applying the stretching force.
PPPM initialization ...
  G vector (1/distance) = 0.30078591
  grid = 45 20 20
  stencil order = 5
  estimated absolute RMS force accuracy = 0.0035078548
  estimated relative force accuracy = 1.05638e-05
  3d grid and FFT values/proc = 13122 4800
Generated 36 of 36 mixed pair_coeff terms from geometric mixing rule
Step          Temp          E_pair         E_mol          TotEng         Press
30000   298.38861     -10802.557      1476.8752     -6605.775      -592.0127
Averages over the last 151 of 301 rows, steps 45000 to 60000:
Temp E_pair E_mol TotEng Press
300.422 -10974 1512.62 -6722.94 -759.619
Loop time of 107.523 on 4 procs for 30000 steps with 3059 atoms
