LAMMPS (27 Jun 2024)
Loaded 1 plugins from C:\Users\nashi\AppData\Local\LAMMPS 64-bit 27Jun2024-MSMPI\plugins
boundary p p f
units real
atom_style full
bond_style harmonic
angle_style harmonic
pair_style lj/cut/tip4p/long 1 2 1 1 0.1546 12.0
kspace_style pppm/tip4p 1.0e-4
kspace_modify slab 3.0

read_data ../minimization/system.data
Reading data file ...
  orthogonal box = (-12.12 -12.12 -20.2) to (12.12 12.12 20.2)
  reading atoms ...
  1665 atoms
  reading velocities ...
  1665 velocities
  scanning bonds ...
  scanning angles ...
  orthogonal box = (-12.12 -12.12 -20.2) to (12.12 12.12 20.2)
  reading bonds ...
  802 bonds
  reading angles ...
  401 angles
Finding 1-2 1-3 1-4 neighbors ...
     2 = max # of 1-2 neighbors
     1 = max # of 1-3 neighbors
     1 = max # of 1-4 neighbors
     2 = max # of special neighbors

include ../PARM.lammps
mass 1 15.9994 # water
mass 2 1.008 # water
mass 3 28.990 # ion
mass 4 35.453 # ion
mass 5 26.9815 # wall

pair_coeff 1 1 0.185199 3.1589 # water
pair_coeff 2 2 0.0 1.0 # water
pair_coeff 3 3 0.04690 2.4299 # ion
pair_coeff 4 4 0.1500 4.04470 # ion
pair_coeff 5 5 11.697 2.574 # wall
pair_coeff 1 5 0.4 2.86645 # water-wall

bond_coeff 1 0 0.9572 # water

angle_coeff 1 0 104.52 # water
include ../GROUP.lammps
group H2O type 1 2
1203 atoms in group H2O
group Na type 3
15 atoms in group Na
group Cl type 4
15 atoms in group Cl
group ions union Na Cl
30 atoms in group ions
group fluid union H2O ions
1233 atoms in group fluid

group wall type 5
432 atoms in group wall
region rtop block INF INF INF INF 0 INF
region rbot block INF INF INF INF INF 0
group top region rtop
837 atoms in group top
group bot region rbot
828 atoms in group bot
group walltop intersect wall top
216 atoms in group walltop
group wallbot intersect wall bot
216 atoms in group wallbot

fix mynve all nve
fix myber all temp/berendsen 300 300 100
fix myshk H2O shake 1.0e-4 200 0 b 1 a 1
Finding SHAKE clusters ...
       0 = # of size 2 clusters
       0 = # of size 3 clusters
       0 = # of size 4 clusters
     401 = # of frozen angles
  find clusters CPU = 0.000 seconds
fix myrct all recenter NULL NULL 0
timestep 1.0

dump mydmp all atom 1000 dump.lammpstrj
thermo 500
variable walltopz equal xcm(walltop,z)
variable wallbotz equal xcm(wallbot,z)
variable deltaz equal v_walltopz-v_wallbotz
fix myat1 all ave/time 100 1 100 v_deltaz file interwall_distance.dat

run 30000

CITE-CITE-CITE-CITE-CITE-CITE-CITE-CITE-CITE-CITE-CITE-CITE-CITE

Your simulation uses code contributions which should be cited:

- Type Label Framework: https://doi.org/10.1021/acs.jpcb.3c08419

@Article{Gissinger24,
 author = {Jacob R. Gissinger, Ilia Nikiforov, Yaser Afshar, Brendon Waters, Moon-ki Choi, Daniel S. Karls, Alexander Stukowski, Wonpil Im, Hendrik Heinz, Axel Kohlmeyer, and Ellad B. Tadmor},
 title = {Type Label Framework for Bonded Force Fields in LAMMPS},
 journal = {J. Phys. Chem. B},
 year =    2024,
 volume =  128,
 number =  13,
 pages =   {3282â€“-3297}
}

CITE-CITE-CITE-CITE-CITE-CITE-CITE-CITE-CITE-CITE-CITE-CITE-CITE

PPPM initialization ...
  extracting TIP4P info from pair style
  G vector (1/distance) = 0.22477066
  grid = 12 12 40
  stencil order = 5
  estimated absolute RMS force accuracy = 0.023142321
  estimated relative force accuracy = 6.9692414e-05
  3d grid and FFT values/proc = 8892 2376
Generated 9 of 10 mixed pair_coeff terms from geometric mixing rule
Step          Temp          E_pair         E_mol          TotEng         Press
0   201.40264     -38476.058      0             -37717.825     -21636.798
Averages over the last 31 of 61 rows, steps 15000 to 30000:
Temp E_pair E_mol TotEng Press
300.097 -37992.6 0 -36862.8 -15455.9
Loop time of 121.449 on 4 procs for 30000 steps with 1665 atoms

write_data system.data nocoeff
System init for write_data ...
PPPM initialization ...
  extracting TIP4P info from pair style
  G vector (1/distance) = 0.22477066
  grid = 12 12 40
  stencil order = 5
  estimated absolute RMS force accuracy = 0.023142321
  estimated relative force accuracy = 6.9692414e-05
  3d grid and FFT values/proc = 8892 2376
Generated 9 of 10 mixed pair_coeff terms from geometric mixing rule
