LAMMPS (2 Aug 2023 - Update 3)
Loaded 1 plugins from C:\Users\nashi\AppData\Local\LAMMPS 64-bit 2Aug2023\plugins
units metal
boundary p p p
atom_style full
pair_style vashishta
neighbor 1.0 bin
neigh_modify delay 1

read_data SiO.data
Reading data file ...
  orthogonal box = (0 0 0) to (5.1463944 5.1463944 5.1463944)
  reading atoms ...
  9 atoms
Finding 1-2 1-3 1-4 neighbors ...
     0 = max # of 1-2 neighbors
     0 = max # of 1-3 neighbors
     0 = max # of 1-4 neighbors
     1 = max # of special neighbors
replicate 4 4 4
Replication is creating a 4x4x4 = 64 times larger system...
  orthogonal box = (0 0 0) to (20.585578 20.585578 20.585578)
  576 atoms
Finding 1-2 1-3 1-4 neighbors ...
     0 = max # of 1-2 neighbors
     0 = max # of 1-3 neighbors
     0 = max # of 1-4 neighbors
     1 = max # of special neighbors
  replicate CPU = 0.002 seconds

pair_coeff * * ../Potential/SiO.1990.vashishta Si O
Reading vashishta potential file ../Potential/SiO.1990.vashishta with DATE: 2015-10-14

dump dmp all atom 5000 dump.lammpstrj
variable myvol equal vol
variable mylx equal lx
variable myly equal ly
variable mylz equal lz
variable mypot equal pe
variable mytemp equal temp
fix myat1 all ave/time 10 100 1000 v_mytemp file temperature.dat
fix myat2 all ave/time 10 100 1000 v_myvol v_mylx v_myly v_mylz file dimensions.dat
fix myat3 all ave/time 10 100 1000 v_mypot file potential-energy.dat
thermo 1000

velocity all create 6000 4928459 rot yes dist gaussian
fix npt1 all npt temp 6000 6000 0.1 iso 100 100 1
timestep 0.001
run 50000
Step          Temp          E_pair         E_mol          TotEng         Press          Volume
0   6000          -2060.8001      0             -1614.8526      779045.54      8723.4681
Averages over the last 26 of 51 rows, steps 25000 to 50000:
Temp E_pair E_mol TotEng Press Volume
6051.17 -4316.98 0 -3867.23 -1773.21 12337.7
Loop time of 1573.18 on 1 procs for 50000 steps with 576 atoms

fix npt1 all npt temp 6000 4000 0.1 aniso 100 100 1
run 50000
Step          Temp          E_pair         E_mol          TotEng         Press          Volume
50000   6251.9232     -4386.6595      0             -3921.9879      1717.2633      11485.33
Averages over the last 26 of 51 rows, steps 75000 to 100000:
Temp E_pair E_mol TotEng Press Volume
4498.35 -4609.98 0 -4275.64 1793.1 9410.45
Loop time of 1964.97 on 1 procs for 50000 steps with 576 atoms

fix npt1 all npt temp 4000 300 0.1 aniso 100 1 1
run 200000
Step          Temp          E_pair         E_mol          TotEng         Press          Volume
100000   3818.2817     -4734.9767      0             -4451.1845      3115.7091      8766.1176
Averages over the last 101 of 201 rows, steps 200000 to 300000:
Temp E_pair E_mol TotEng Press Volume
1226.57 -5096.42 0 -5005.25 395.231 7724.11
Loop time of 2250.99 on 1 procs for 200000 steps with 576 atoms

fix npt1 all npt temp 300 300 0.1 aniso 1 1 1
run 50000
Step          Temp          E_pair         E_mol          TotEng         Press          Volume
300000   305.86409     -5172.047       0             -5149.3138      3391.1978      7524.2824
Averages over the last 26 of 51 rows, steps 325000 to 350000:
Temp E_pair E_mol TotEng Press Volume
298.516 -5171.81 0 -5149.62 401.737 7539.64
Loop time of 1095.55 on 1 procs for 50000 steps with 576 atoms

write_data amorphousSiO.data
System init for write_data ...
