LAMMPS (27 Jun 2024)
Loaded 1 plugins from C:\Users\nashi\AppData\Local\LAMMPS 64-bit 27Jun2024-MSMPI\plugins
units real
atom_style full

read_data ../RelaxSilica/silica-relaxed.data
Reading data file ...
  orthogonal box = (-3.4633416 2.3114326 1.4434488) to (24.048919 18.274145 19.142129)
  reading atoms ...
  576 atoms
  reading velocities ...
  576 velocities
Finding 1-2 1-3 1-4 neighbors ...
     0 = max # of 1-2 neighbors
     0 = max # of 1-3 neighbors
     0 = max # of 1-4 neighbors
     1 = max # of special neighbors

mass 1 28.0855 # Si
mass 2 15.999 # O

pair_style reaxff NULL safezone 3.0 mincap 150
pair_coeff * * ../RelaxSilica/reaxCHOFe.ff Si O
fix myqeq all qeq/reaxff 1 0.0 10.0 1.0e-6 reaxff maxiter 400

group grpSi type 1
192 atoms in group grpSi
group grpO type 2
384 atoms in group grpO
variable qSi equal charge(grpSi)/count(grpSi)
variable qO equal charge(grpO)/count(grpO)

thermo 5
thermo_style custom step temp etotal press vol v_qSi v_qO
dump dmp all custom 100 dump.lammpstrj id type q x y z

fix myspec all reaxff/species 5 1 5 species.log element Si O

fix mynvt all nvt temp 300.0 300.0 100
timestep 0.5

run 5000

CITE-CITE-CITE-CITE-CITE-CITE-CITE-CITE-CITE-CITE-CITE-CITE-CITE

Your simulation uses code contributions which should be cited:

- Type Label Framework: https://doi.org/10.1021/acs.jpcb.3c08419

@Article{Gissinger24,
 author = {Jacob R. Gissinger, Ilia Nikiforov, Yaser Afshar, Brendon Waters, Moon-ki Choi, Daniel S. Karls, Alexander Stukowski, Wonpil Im, Hendrik Heinz, Axel Kohlmeyer, and Ellad B. Tadmor},
 title = {Type Label Framework for Bonded Force Fields in LAMMPS},
 journal = {J. Phys. Chem. B},
 year =    2024,
 volume =  128,
 number =  13,
 pages =   {3282â€“-3297}
}

- pair reaxff command: doi:10.1016/j.parco.2011.08.005

@Article{Aktulga12,
 author = {H. M. Aktulga and J. C. Fogarty and S. A. Pandit and A. Y. Grama},
 title = {Parallel Reactive Molecular Dynamics: {N}umerical Methods and Algorithmic Techniques},
 journal = {Parallel Computing},
 year =    2012,
 volume =  38,
 number =  {4--5},
 pages =   {245--259}
}

- fix qeq/reaxff command: doi:10.1016/j.parco.2011.08.005

@Article{Aktulga12,
 author = {H. M. Aktulga and J. C. Fogarty and S. A. Pandit and A. Y. Grama},
 title = {Parallel Reactive Molecular Dynamics: {N}umerical Methods and Algorithmic Techniques},
 journal = {Parallel Computing},
 year =    2012,
 volume =  38,
 pages =   {245--259}
}

CITE-CITE-CITE-CITE-CITE-CITE-CITE-CITE-CITE-CITE-CITE-CITE-CITE

Step          Temp          TotEng         Press          Volume         v_qSi           v_qO
0   279.2537      -85798.047      2442.4526      7772.7349      1.8669444     -0.93347222
Averages over the last 501 of 1001 rows, steps 2500 to 5000:
Temp TotEng Press Volume v_qSi v_qO
297.92 -85787.6 3266.45 7772.73 1.87582 -0.937908
Loop time of 279.232 on 4 procs for 5000 steps with 576 atoms

fix mydef all deform 1 x erate 5e-5

run 25000
Step          Temp          TotEng         Press          Volume         v_qSi           v_qO
5000   288.53839     -85798.69       3525.7263      7772.7349      1.8753907     -0.93769537
Averages over the last 2501 of 5001 rows, steps 17500 to 30000:
Temp TotEng Press Volume v_qSi v_qO
345.033 -82861.2 -46462.6 11416.2 1.69376 -0.84688
Loop time of 991.434 on 4 procs for 25000 steps with 576 atoms

write_data silica-deformed.data
System init for write_data ...
