read_data	PE_nc10_cl1000.dat
Reading data file ...
  orthogonal box = (0 0 0) to (80.0586 80.0586 80.0586)
  reading atoms ...
  10000 atoms
  scanning bonds ...
  scanning angles ...
  scanning dihedrals ...
  orthogonal box = (0 0 0) to (80.0586 80.0586 80.0586)
  reading bonds ...
  9990 bonds
  reading angles ...
  9980 angles
  reading dihedrals ...
  9970 dihedrals
Finding 1-2 1-3 1-4 neighbors ...
     2 = max # of 1-2 neighbors
     2 = max # of 1-3 neighbors
     4 = max # of 1-4 neighbors
     6 = max # of special neighbors

# Dreiding potential information
neighbor	0.4 bin
neigh_modify	every 10 one 10000
bond_style      harmonic
bond_coeff	1 350 1.53
angle_style     harmonic
angle_coeff	1 60 109.5
dihedral_style	multi/harmonic
dihedral_coeff	1 1.73 -4.49 0.776 6.99 0.0
pair_style	lj/cut 10.5
pair_coeff	1 1 0.112 4.01 10.5

#####################################################
# Equilibration Stage 1 (Langevin dynamics at 500 K)
velocity 	all create 500.0 1231
fix		1 all nve/limit 0.05
fix		2 all langevin 500.0 500.0 10.0 904297
thermo_style	custom step temp press
thermo          100
timestep	1
run		10000

CITE-CITE-CITE-CITE-CITE-CITE-CITE-CITE-CITE-CITE-CITE-CITE-CITE

Your simulation uses code contributions which should be cited:

- Type Label Framework: https://doi.org/10.1021/acs.jpcb.3c08419

@Article{Gissinger24,
 author = {Jacob R. Gissinger, Ilia Nikiforov, Yaser Afshar, Brendon Waters, Moon-ki Choi, Daniel S. Karls, Alexander Stukowski, Wonpil Im, Hendrik Heinz, Axel Kohlmeyer, and Ellad B. Tadmor},
 title = {Type Label Framework for Bonded Force Fields in LAMMPS},
 journal = {J. Phys. Chem. B},
 year =    2024,
 volume =  128,
 number =  13,
 pages =   {3282â€“-3297}
}

CITE-CITE-CITE-CITE-CITE-CITE-CITE-CITE-CITE-CITE-CITE-CITE-CITE

Generated 0 of 0 mixed pair_coeff terms from geometric mixing rule
Step          Temp          Press
0   500            1.8475472e+08
Averages over the last 51 of 101 rows, steps 5000 to 10000:
Temp Press
500.033 2070.35
Loop time of 21.8279 on 4 procs for 10000 steps with 10000 atoms

unfix 1
unfix 2
write_restart 	restart.PE_nc10_cl1000.dreiding1
System init for write_restart ...
Generated 0 of 0 mixed pair_coeff terms from geometric mixing rule

#####################################################
# Equilibration Stage 2 (NPT dynamics at 500 K)
fix		1 all npt temp 500.0 500.0 50 iso 0 0 1000 drag 2
fix  		2 all momentum 1 linear 1 1 1
thermo_style	custom step temp press
thermo          100
timestep	0.5
reset_timestep	0
run		50000
Generated 0 of 0 mixed pair_coeff terms from geometric mixing rule
Step          Temp          Press
0   495.71558      1537.8869
Averages over the last 251 of 501 rows, steps 25000 to 50000:
Temp Press
500.217 -22.4157
Loop time of 95.2808 on 4 procs for 50000 steps with 10000 atoms

unfix 1
unfix 2
write_restart 	restart.PE_nc10_cl1000.dreiding2
System init for write_restart ...
Generated 0 of 0 mixed pair_coeff terms from geometric mixing rule

#####################################################
# Equilibration Stage 3 (NPT dynamics from 500 K --> 100 K)
fix		1 all npt temp 500 100 50 iso 0 0 1000 drag 2
fix		2 all momentum 1 linear 1 1 1
thermo_style	custom step temp press
thermo          10
timestep	0.5
reset_timestep 	0
run		50000
Generated 0 of 0 mixed pair_coeff terms from geometric mixing rule
Step          Temp          Press
0   493.55893     -219.44392
Averages over the last 2501 of 5001 rows, steps 25000 to 50000:
Temp Press
203.422 -19.3532
Loop time of 99.359 on 4 procs for 50000 steps with 10000 atoms

unfix 1
unfix 2
write_restart 	restart.PE_nc10_cl1000.dreiding3
System init for write_restart ...
Generated 0 of 0 mixed pair_coeff terms from geometric mixing rule

#####################################################
# Equilibration Stage 4 (NPT dynamics at 100 K)
fix		1 all npt temp 100 100 50 iso 0 0 1000 drag 2
fix		2 all momentum 1 linear 1 1 1
thermo_style	custom step temp press epair ebond eangle edihed pxx pyy pzz lx ly lz
thermo          10
timestep	0.5
reset_timestep 	0
run		50000
Generated 0 of 0 mixed pair_coeff terms from geometric mixing rule
Step          Temp          Press          E_pair         E_bond        E_angle        E_dihed          Pxx            Pyy            Pzz             Lx             Ly             Lz
0   103.05759      84.966562     -14187.639      936.26452      1229.5495      3807.6464      343.3616      -107.7039       19.241984      66.044656      66.044656      66.044656
Averages over the last 2501 of 5001 rows, steps 25000 to 50000:
Temp Press E_pair E_bond E_angle E_dihed Pxx Pyy Pzz Lx Ly Lz
100.002 -0.325238 -14286.4 888.771 1210.83 3776.56 29.958 -17.6256 -13.3082 65.9114 65.9114 65.9114
Loop time of 108.699 on 4 procs for 50000 steps with 10000 atoms

unfix 1
unfix 2
write_restart 	restart.PE_nc10_cl1000.dreiding4
System init for write_restart ...
Generated 0 of 0 mixed pair_coeff terms from geometric mixing rule

#####################################################
# Uniaxial Tensile Deformation
run 0
Generated 0 of 0 mixed pair_coeff terms from geometric mixing rule
Step          Temp          Press          E_pair         E_bond        E_angle        E_dihed          Pxx            Pyy            Pzz             Lx             Ly             Lz
50000   99.443383      278.55804     -14322.715      909.57264      1227.1825      3782.9532      157.04377      554.98695      123.6434       65.908718      65.908718      65.908718
Loop time of 1.75e-06 on 4 procs for 0 steps with 10000 atoms

variable tmp equal "lx"
variable L0 equal 65.9087183376769
variable strain equal "(lx - v_L0)/v_L0"
variable p1 equal "v_strain"
variable p2 equal "-pxx/10000*1.01325"
variable p3 equal "-pyy/10000*1.01325"
variable p4 equal "-pzz/10000*1.01325"
variable p5 equal "lx"
variable p6 equal "ly"
variable p7 equal "lz"
variable p8 equal "temp"
variable t2 equal "epair"
variable t3 equal "ebond"
variable t4 equal "eangle"
variable t5 equal "edihed"
fix		1 all npt temp 100 100 50 y 0 0 1000 z 0 0 1000 drag 2
fix		2 all deform 1 x erate 1e-5 units box remap x

# Dump command for visualization
dump        1 all atom 100 PE_nc10_cl1000_deformation.lammpstrj
dump_modify 1 scale no

thermo_style	custom step temp pxx pyy pzz lx ly lz epair ebond eangle edihed
thermo          100
timestep	1
reset_timestep	0
run		171800
Generated 0 of 0 mixed pair_coeff terms from geometric mixing rule
Step          Temp           Pxx            Pyy            Pzz             Lx             Ly             Lz           E_pair         E_bond        E_angle        E_dihed
0   99.443383      157.04377      554.98695      123.6434       65.908718      65.908718      65.908718     -14322.715      909.57264      1227.1825      3782.9532
Averages over the last 860 of 1719 rows, steps 85900 to 171800:
Temp Pxx Pyy Pzz Lx Ly Lz E_pair E_bond E_angle E_dihed
100.086 -551.381 10.7768 6.61283 150.832 48.3973 51.0142 -13578.5 787.642 1250.62 3857.41
Loop time of 448.741 on 4 procs for 171800 steps with 10000 atoms

unfix 1
unfix 2
unfix def1
unfix def2

print "All done"
All done
